193

Cl      19.05596226      15.94442396      19.06308048
Cl       6.96342177      19.05535705      15.93119496
Pb       6.76893997       9.87518574       9.85584158
Cl      18.96684178      22.17544304      13.00013534
Pb       9.92334661      16.10368795      13.00024607
Cl      10.05932948      19.05961849       6.93098885
Cl      10.06917119       3.82483691      15.93178813
S      16.13333166      12.99737046      19.30553337
Pb       9.88212166      19.24383240       9.83897043
Pb      12.99568356       9.89073326      16.12435113
S      12.99911179      12.99589250       9.89987386
Cl       3.83403495      10.07824990      15.93124218
Cl      15.93169465       3.84153376      10.07027510
S       9.90369606      16.09633766      16.10184521
S       9.90683615      19.30197475      13.00024063
S      19.28015458      16.13830756      13.00020792
Cl      12.99318504       7.02089491       3.81867616
Pb      16.12837197      16.12458874      19.26621636
Pb       9.87798730       6.73711557      16.18268990
Cl       3.85030278      15.93906592      10.07705802
Pb       9.87221433      16.12846414      19.26428266
Pb       9.88210241      19.24384531      16.16150602
S      16.13343141      12.99739810       6.69492507
S      12.99786562       9.86179333      19.30257268
S      22.29270621      13.07642256      13.00021733
Cl      19.05529506      10.06127523       6.93816496
Cl      10.05932904      19.05959089      19.06947461
Pb       3.75717736      16.25127015      13.00025642
Cl       3.82716721      12.97188479      19.00550165
Cl      19.06667316      19.07269857      15.91859701
Pb       9.90200486      12.99715505       9.86098001
Pb      16.09382227      22.31748819      13.00021035
Pb      19.22928400      16.11661323      16.14460319
Cl      22.14788224      10.05270879      15.92337918
Pb       9.86979114       9.86713110      19.26621917
S      12.98211502       6.69342677       9.87356638
Cl      22.16414533      15.91358096      15.93123542
Pb      13.03248043       6.60512568      13.00025699
Cl      10.06443438      15.92962817      22.16441298
Pb      12.99906964      12.99587231      13.00023740
S      19.29651466      13.00051537      16.13028653
Cl      19.06668232      19.07269227      10.08179017
Pb      13.00248245      16.10099797       9.87613145
Pb      13.00003956      22.26769584      16.18581814
S      12.99908603      12.99588424      16.10059057
Pb      12.99903397      12.99583085      19.40174525
Cl      19.03480703       6.93639628      15.93120175
S      13.01608910      19.29829615       9.87351510
Cl      22.14789530      10.05270456      10.07704227
Cl      15.92900122      22.16697506      10.06866228
Cl      12.99309795       7.02084502      22.18184035
S      12.99905334      12.99581284      22.28443908
Pb      16.14511943      12.99642111       3.71703162
Pb       9.89648954       9.94182225      13.00025753
Pb      13.00246709      16.10098349      16.12432743
Cl       6.93152214       6.91908743      15.91868168
Pb      12.99969684      16.15049699      22.27635548
Pb       9.90432077       3.67425224      13.00025231
Pb       9.86981894       9.86714985       6.73427871
S      13.01608335      19.29828379      16.12692712
S       9.89188274       9.88502010      16.10458731
Pb      12.99571497       9.89073422       9.87613696
Cl      10.06448724      10.06222036      22.16887757
Cl       7.03069125      12.98383442       3.81595912
Pb       6.61528236      12.98871923       6.56508175
Cl       3.85028552      15.93906402      15.92345349
S       6.71794818       9.85346580      13.00026123
Cl      10.06451970      10.06224617       3.83163569
Cl      18.96756239      13.00820834       3.81588174
S      12.98210557       6.69340959      16.12695350
Pb      22.25574729      12.97606508      16.23068093
S       9.89190847       9.88503628       9.89592101
Pb      12.99568970       6.59239323      19.43084482
S       6.70162732      12.99126982       9.87018908
Pb       6.65957787      13.00715169      13.00026961
S       6.70159482      12.99126573      16.13037712
Pb       6.61521386      12.98869566      19.43545084
Cl       7.03061607      12.98373423      22.18457982
Pb      12.99843689       9.84114522      22.27635746
Pb      12.99571044       6.59243849       6.56966772
Pb      13.00247873      19.39932123       6.56963231
Cl      18.96748503      13.00813291      22.18452622
Cl      15.92902020      22.16694196      15.93176562
Pb      19.22795028       9.86768811       9.85364124
Pb      12.99847582       9.84119713       3.72412865
S       9.89163500      12.99190249      13.00024962
Cl      18.94379212       3.83973248      13.00023025
Pb      16.11608484       6.74787792      16.16156441
S       3.70546673      12.91538472      13.00024902
S      16.10626836      16.10670601      16.10456843
Cl       3.82724766      12.97195369       6.99502020
Pb      19.33862577      12.98459464      13.00021182
Pb      19.38293990      13.00308172       6.56503129
Cl      10.06652237      22.15021805      10.07023906
Cl      12.97411828       3.82443734       7.01561658
Cl      10.06654519      22.15022522      15.93020323
S      19.30634380       9.88172331      13.00022497
Pb      19.22794467       9.86768317      16.14681401
Cl      19.05527087      10.06128480      19.06227682
Cl      10.04487209       6.92902479      19.07788493
S      13.00025102      16.12982410      19.30261252
Cl      13.00506520      18.97076747      22.18181706
Pb       3.74238307      13.01573385      16.23075470
Pb      16.13451855       3.71357807      13.00025211
Pb      16.10175187      16.05002712      13.00022277
Cl       6.94290741      15.93050704       6.93818907
Cl      13.02407081      22.16729313      18.98485588
Pb      22.21448327      15.88477614      13.00020697
Cl      15.95331324      19.06270051       6.92256814
Pb      16.12021972      19.25468410       9.81778070
Pb       9.90198704      12.99714156      16.13952395
Pb      12.99814210       3.72403170       9.81467755
Pb      12.96561588      19.38667707      13.00022275
Cl      10.06448261      15.92967798       3.83607251
Pb       6.77024373      16.12405462       9.85367170
S       6.69181830      16.11002176      13.00026096
Pb       6.77022440      16.12404647      16.14682626
Pb       3.78365401      10.10700329      13.00025322
S      12.97909473       3.72982048      13.00024745
S      16.24767608      19.33514114      13.00020559
Pb      16.12019265      19.25465302      16.18262881
Cl       7.03130334       3.81639095      13.00029799
Pb      16.12840876      16.12461221       6.73421572
Cl      13.02409047      22.16734597       7.01558404
Pb      13.00002104      22.26770415       9.81461506
Cl       6.94288085      15.93049789      19.06231982
S      12.99838505      16.10042988      13.00023686
Cl      12.97409022       3.82439095      18.98488457
Cl      15.95330873      19.06267030      19.07785290
Pb       9.86365999      22.27826587      13.00022435
Cl      22.16417734      15.91356386      10.06917429
S      13.01901354      22.26195067      13.00022494
Pb      16.11611167       6.74787191       9.83891546
S      16.09129605       6.68978825      13.00024728
Pb       6.76891697       9.87519372      16.14467827
Cl       6.93153229       6.91908959      10.08185082
Pb      12.99973921      16.15054848       3.72411113
Cl      10.06916736       3.82486617      10.06870485
Pb      19.18203053      19.45514547      13.00019932
Pb      13.00246875      19.39927432      19.43080440
Pb      19.38287998      13.00308180      19.43538076
Cl       3.84060927      18.97535905      13.00028405
Pb      22.25577529      12.97605328       9.76971103
Pb       6.81622806       6.53669039      13.00026579
Pb       9.87224571      16.12850213       6.73621548
S      16.10628985      16.10672113       9.89586507
Pb       3.74241261      13.01573398       9.76978243
Cl      15.93169973       3.84153995      15.93022853
S       9.86479549      12.99434679       6.69496640
Pb      12.99910085      12.99587452       6.59872515
Pb      22.24106520       9.74043856      13.00021433
Cl      15.93886764       6.93209014      19.06952548
Cl      22.17095328      13.01967833      19.00543153
Cl       6.94218486      10.04734813      19.06315043
Cl      13.00515549      18.97082008       3.81861572
Pb       9.85304646      12.99533056      22.28345763
Cl      15.93374742      10.06212695       3.83607654
Pb      19.34184190       6.58782679      13.00024600
Pb      16.09620556      12.99462137       9.86091436
Cl       7.05437113      22.15205908      13.00026255
S      16.10657860      12.99984829      13.00022738
Pb       9.85312281      12.99537832       3.71704129
Pb      16.12598252       9.86328300       6.73620377
S      16.09447781       9.89539590       9.89862932
Cl       6.96342146      19.05535892      10.06929069
Cl      19.03481890       6.93638793      10.06929119
Cl      15.93887575       6.93210893       6.93096099
S      12.99912564      12.99585662       3.71602907
Cl       3.83407087      10.07823643      10.06925902
S       9.90371729      16.09633415       9.89863649
Pb      12.99814597       3.72402327      16.18582702
Pb      16.07485481       9.88800829      13.00023631
S      16.09446615       9.89540013      16.10183835
Pb      16.14504615      12.99638509      22.28342831
Cl       6.94223253      10.04736448       6.93736709
S      13.00029354      16.12988392       6.69784860
Cl      19.05600468      15.94442556       6.93734822
Cl      22.15760799       7.01638368      13.00020682
Cl      15.93366625      15.92951303      22.16885476
Cl      10.04488148       6.92906291       6.92263171
Cl      22.17103101      13.01970931       6.99497748
Cl      15.93371264      15.92953327       3.83157013
Pb      16.12595338       9.86325755      19.26426250
Cl      15.93370109      10.06208900      22.16439407
Pb       6.65632049      19.40398914      13.00024391
S      19.29654249      13.00050949       9.87011592
S      12.99789846       9.86184983       6.69791690
Pb      19.22931056      16.11660043       9.85581359
Pb      16.09617516      12.99461570      16.13953536
S       9.86470097      12.99432003      19.30553232
S      12.99980849       9.89141322      13.00024099
Pb       9.87801278       6.73714146       9.81783251
S       9.75057575       6.65663168      13.00026333
