 82 

 In        15.7536707773       13.0843843951       10.4909468884
 In        12.6882439517       15.4400915949       10.1550541773
 In        15.3510237789       15.8476438723       13.0620943785
 In        15.7627421829       18.1968129973        9.5913094818
 In        12.7639706736       15.9248908111       15.9992695349
 In        15.8498346610        6.5007634476       16.0732424754
 In        12.7628356320       10.3109845641       10.2329707352
 In        18.4562863918       13.0866893446       13.4863473239
 In        15.6891874217       10.0738794103       13.4107572526
 In         7.8010451391       10.1592098128       10.3940302069
 In        13.1654402125       18.5389896319       13.1558235709
 In        15.7563284976       15.7708371413        7.3092857210
 In        12.6750840361       12.5829831621       18.5266488144
 In         9.9831117519        9.7525220691       13.1743721816
 In         9.8320841142       13.1688532169       10.2311536696
 In        13.0087318270        9.9115434641       16.2400450570
 In         9.8239952483        9.9125311830        7.4815092796
 In         9.9836080057       12.9185509491       16.4076206607
 In        18.4568007993       15.2746749681        9.8383162743
 In         7.2281748346       13.3168550923       13.0759212244
 In        13.2380372081       12.3396720754        7.4750667048
 In        12.7487846954       12.7643821195       13.4140192351
 In        15.8443118157       13.0823708311       16.2506337347
 In        15.6022243931        9.2558128039       18.6058207838
 In         9.8271809470       15.7575682063       13.3288716243
 In         7.4063663471       16.3418645090       16.0091828872
 In         9.5760511287       15.5903172704       18.9254384607
 In        12.5991621916        7.6475742987       13.3341588376
 In        18.3481368748        9.3385760874       15.6093317618
 In        10.4800882485       18.5206804353       16.5764151898
 In         9.9074748069        7.3081820555        9.6800398807
  P        11.3850517481       14.2663396540       11.9270154140
  P         8.7601968581       11.6389874337       12.0141475893
  P        14.3339542521       11.4636216396       11.8424789356
  P        14.5815247094       11.4142818597       17.6106596949
  P        14.3481645716       14.1752731185        8.7514459654
  P        14.2534870248       14.3484089414       14.7490748285
  P        17.5873340468       17.0174977578        8.3775703658
  P         8.5219197814       14.3243368973       14.9172198725
  P        17.1938392069       14.5746187621       11.9641529469
  P        14.1243155891       17.1532464728       11.2954556455
  P        11.5099293901       14.5021555630       17.6302757189
  P         8.5697786981       17.5463194438       17.8421468007
  P        11.4395259679        8.5525265877       11.4064784644
  P        11.2356960120       11.5971855166        8.7681071273
  P         8.0387050358        8.5532308869        8.6285661194
  P        11.4104961776       17.3573280903       14.4975027773
  P        17.1852160514       11.5017576922       14.8539481883
  P        11.2915620244       11.2095057063       14.9109469196
  P        14.4085260252        8.3942425229       14.7573392152
  P        17.3422557028        7.9567839777       17.4181239984
 Cl         9.6238318833       10.3723073432        5.2440067864
 Cl        13.4197343420       12.0806777721        5.2194407096
 Cl        15.9312574083       20.4478591724       10.0319776337
 Cl         5.1127109513       16.1490796912       16.0280004891
 Cl        20.7106250066       14.9247677240       10.1334353497
 Cl        17.7898549475       12.7755058073        9.1239516078
 Cl        12.8491779477       17.8086142987       17.6071591543
 Cl         7.9946864195       15.0922779480       11.4118121451
 Cl        10.0071641531       15.3058394629       21.1712194180
 Cl        15.3661063585       17.9117070834       14.4581758327
 Cl         8.2899963971       13.4301227877       18.2771462577
 Cl        14.1477118045       17.7413365585        7.6711057932
 Cl         7.8245046592       12.4955373782        8.8590765043
 Cl        10.1351720436        5.0767246858       10.1780171277
 Cl        10.6640824110        7.5700563838       14.7999458244
 Cl        20.6334662131        9.4169516278       15.4101131867
 Cl        11.4424012128        7.9127514041        7.7727218229
 Cl        15.6952449374       15.1536907038        5.1016483502
 Cl        13.1747927514        8.4056481954       18.2043741197
 Cl        10.6270734155       15.4519734032        8.8337187745
 Cl         4.9907353864       12.8927426920       12.8561538065
 Cl        13.0454280064       20.8149796423       13.0439896095
 Cl         7.9907743696       17.5536873029       13.8376249872
 Cl        14.4926696632       10.2318488259        8.4316631850
 Cl         7.9812763671        8.3975094917       12.6740869884
 Cl        17.7236458946        8.7380233701       13.0594805673
 Cl        16.7817278402        5.3919850889       14.2576001919
 Cl        20.6657969312       13.4657115456       13.8766210082
 Cl        10.8180399305       11.0572789221       18.5696435625
 Cl        10.6613671272       20.8107648980       16.5917982246
 Cl        14.2443278022        5.1600709356       17.0576620400
 Cl        15.6502441128        9.5081838586       20.8949233729
 Cl        17.1250155750       14.6345157183       17.4065192717
